MpcReader/case2.m
    function mpc = case6ww_GCEP
mpc.baseMVA = 100;
mpc.bus = [
	1       3           0       0	0	0	1       1.05	0	230	1       1.05	1.05;
	2       2           0       0	0	0	1       1.05	0	230	1       1.05	1.05;
	3       2           0       0	0	0	1       1.07	0	230	1       1.07	1.07;
	4       1           200     0	0	0	1       1       0	230	1       1.05	0.95;
	5       1           200     0	0	0	1       1       0	230	1       1.05	0.95;
	6       1           200     0	0	0	1       1       0	230	1       1.05	0.95;
];
mpc.factor=[0.4 0.6 0.9 1.2 1;
  0.6 0.8 1.1 1.4 1;
  0.8 1.0 1.3 1.6 1;
  1.0 1.2 1.5 1.8 1;
  1.2 1.4 1.7 2 1];
mpc.gen = [
    1   0   0   0   0	0	0   1   250 0   0       0   0       1   0   0   0   0   0   0   0   0; %1
    4   0   0   0   0   0   0   1   100 0   0       0   0       1   0   0   0   0   0   0   0   0; %4
    4   0   0   0   0   0   0   1   50  0   0       0   0       1   0   0   0   0   0   0   0   0; %5
	1	0	0	0	0	0	0	0	150 0	300000	1	12000	3	0	0	0	0	0	0	0	0; %2
	3	0	0	0	0	0	0	0	100 0   250000	1	30000	3	0	0	0	0	0	0	0	0; %3
	5	0	0	0	0	0   0	0	250 0   350000	1	36000	3	0	0	0	0	0	0	0	0; %6
];
mpc.branch = [
	1	2	0.1     0.2	0.04	300	40	40	0	0	1	-360	360; %1
	1	4	0.05	0.2	0.04	300	60	60	0	0	1	-360	360; %2
	1	5	0.08	0.3	0.06	300	40	40	0	0	1	-360	360; %3
	2	3	0.05	0.25 0.06	300	40	40	0	0	1	-360	360; %4
	2	4	0.05	0.1	0.02	300	60	60	0	0	1	-360	360; %5
	2	5	0.1     0.3	0.04	300	30	30	0	0	1	-360	360; %6
	2	6	0.07	0.2	0.05	300 90	90	0	0	1	-360	360; %7
	3	5	0.12	0.26 0.05	300	70	70	0	0	1	-360	360; %8
	3	6	0.02	0.1	0.02	300 80	80	0	0	1	-360	360; %9
	4	5	0.2     0.4	0.08	300	20	20	0	0	1	-360	360; %10 
	5	6	0.1     0.3	0.06	300	40	40	0	0	1	-360	360; %11
];
